
Version,
  8.7;                                    !- Version Identifier

LifeCycleCost:Parameters,
  {48b56742-632a-46a1-b034-8edea5a2b67d}, !- Name
  EndOfYear,                              !- Discounting Convention
  ConstantDollar,                         !- Inflation Approach
  0.03,                                   !- Real Discount Rate
  ,                                       !- Nominal Discount Rate
  ,                                       !- Inflation
  ,                                       !- Base Date Month
  2011,                                   !- Base Date Year
  ,                                       !- Service Date Month
  2011,                                   !- Service Date Year
  25,                                     !- Length of Study Period in Years
  ,                                       !- Tax rate
  None;                                   !- Depreciation Method

LifeCycleCost:UsePriceEscalation,
  U.S. Avg  Commercial-Electricity,       !- Name
  Electricity,                            !- Resource
  2011,                                   !- Escalation Start Year
  January,                                !- Escalation Start Month
  0.9838,                                 !- Year Escalation 1
  0.9730,                                 !- Year Escalation 2
  0.9632,                                 !- Year Escalation 3
  0.9611,                                 !- Year Escalation 4
  0.9571,                                 !- Year Escalation 5
  0.9553,                                 !- Year Escalation 6
  0.9539,                                 !- Year Escalation 7
  0.9521,                                 !- Year Escalation 8
  0.9546,                                 !- Year Escalation 9
  0.9550,                                 !- Year Escalation 10
  0.9553,                                 !- Year Escalation 11
  0.9564,                                 !- Year Escalation 12
  0.9575,                                 !- Year Escalation 13
  0.9596,                                 !- Year Escalation 14
  0.9618,                                 !- Year Escalation 15
  0.9614,                                 !- Year Escalation 16
  0.9618,                                 !- Year Escalation 17
  0.9618,                                 !- Year Escalation 18
  0.9593,                                 !- Year Escalation 19
  0.9589,                                 !- Year Escalation 20
  0.9607,                                 !- Year Escalation 21
  0.9625,                                 !- Year Escalation 22
  0.9650,                                 !- Year Escalation 23
  0.9708,                                 !- Year Escalation 24
  0.9751,                                 !- Year Escalation 25
  0.9762,                                 !- Year Escalation 26
  0.9766,                                 !- Year Escalation 27
  0.9766,                                 !- Year Escalation 28
  0.9769,                                 !- Year Escalation 29
  0.9773;                                 !- Year Escalation 30

LifeCycleCost:UsePriceEscalation,
  U.S. Avg  Commercial-Distillate Oil,    !- Name
  FuelOil#1,                              !- Resource
  2011,                                   !- Escalation Start Year
  January,                                !- Escalation Start Month
  0.9714,                                 !- Year Escalation 1
  0.9730,                                 !- Year Escalation 2
  0.9942,                                 !- Year Escalation 3
  1.0164,                                 !- Year Escalation 4
  1.0541,                                 !- Year Escalation 5
  1.0928,                                 !- Year Escalation 6
  1.1267,                                 !- Year Escalation 7
  1.1580,                                 !- Year Escalation 8
  1.1792,                                 !- Year Escalation 9
  1.1967,                                 !- Year Escalation 10
  1.2200,                                 !- Year Escalation 11
  1.2333,                                 !- Year Escalation 12
  1.2566,                                 !- Year Escalation 13
  1.2709,                                 !- Year Escalation 14
  1.2826,                                 !- Year Escalation 15
  1.2985,                                 !- Year Escalation 16
  1.3102,                                 !- Year Escalation 17
  1.3250,                                 !- Year Escalation 18
  1.3261,                                 !- Year Escalation 19
  1.3282,                                 !- Year Escalation 20
  1.3324,                                 !- Year Escalation 21
  1.3356,                                 !- Year Escalation 22
  1.3431,                                 !- Year Escalation 23
  1.3510,                                 !- Year Escalation 24
  1.3568,                                 !- Year Escalation 25
  1.3606,                                 !- Year Escalation 26
  1.3637,                                 !- Year Escalation 27
  1.3674,                                 !- Year Escalation 28
  1.3706,                                 !- Year Escalation 29
  1.3743;                                 !- Year Escalation 30

LifeCycleCost:UsePriceEscalation,
  U.S. Avg  Commercial-Residual Oil,      !- Name
  FuelOil#2,                              !- Resource
  2011,                                   !- Escalation Start Year
  January,                                !- Escalation Start Month
  0.8469,                                 !- Year Escalation 1
  0.8257,                                 !- Year Escalation 2
  0.8681,                                 !- Year Escalation 3
  0.8988,                                 !- Year Escalation 4
  0.9289,                                 !- Year Escalation 5
  0.9604,                                 !- Year Escalation 6
  0.9897,                                 !- Year Escalation 7
  1.0075,                                 !- Year Escalation 8
  1.0314,                                 !- Year Escalation 9
  1.0554,                                 !- Year Escalation 10
  1.0861,                                 !- Year Escalation 11
  1.1278,                                 !- Year Escalation 12
  1.1497,                                 !- Year Escalation 13
  1.1620,                                 !- Year Escalation 14
  1.1743,                                 !- Year Escalation 15
  1.1852,                                 !- Year Escalation 16
  1.1948,                                 !- Year Escalation 17
  1.2037,                                 !- Year Escalation 18
  1.2071,                                 !- Year Escalation 19
  1.2119,                                 !- Year Escalation 20
  1.2139,                                 !- Year Escalation 21
  1.2194,                                 !- Year Escalation 22
  1.2276,                                 !- Year Escalation 23
  1.2365,                                 !- Year Escalation 24
  1.2420,                                 !- Year Escalation 25
  1.2461,                                 !- Year Escalation 26
  1.2509,                                 !- Year Escalation 27
  1.2550,                                 !- Year Escalation 28
  1.2591,                                 !- Year Escalation 29
  1.2638;                                 !- Year Escalation 30

LifeCycleCost:UsePriceEscalation,
  U.S. Avg  Commercial-Natural gas,       !- Name
  NaturalGas,                             !- Resource
  2011,                                   !- Escalation Start Year
  January,                                !- Escalation Start Month
  0.9823,                                 !- Year Escalation 1
  0.9557,                                 !- Year Escalation 2
  0.9279,                                 !- Year Escalation 3
  0.9257,                                 !- Year Escalation 4
  0.9346,                                 !- Year Escalation 5
  0.9412,                                 !- Year Escalation 6
  0.9512,                                 !- Year Escalation 7
  0.9645,                                 !- Year Escalation 8
  0.9856,                                 !- Year Escalation 9
  1.0067,                                 !- Year Escalation 10
  1.0222,                                 !- Year Escalation 11
  1.0410,                                 !- Year Escalation 12
  1.0610,                                 !- Year Escalation 13
  1.0787,                                 !- Year Escalation 14
  1.0942,                                 !- Year Escalation 15
  1.1098,                                 !- Year Escalation 16
  1.1220,                                 !- Year Escalation 17
  1.1308,                                 !- Year Escalation 18
  1.1386,                                 !- Year Escalation 19
  1.1486,                                 !- Year Escalation 20
  1.1619,                                 !- Year Escalation 21
  1.1763,                                 !- Year Escalation 22
  1.1918,                                 !- Year Escalation 23
  1.2118,                                 !- Year Escalation 24
  1.2284,                                 !- Year Escalation 25
  1.2439,                                 !- Year Escalation 26
  1.2605,                                 !- Year Escalation 27
  1.2772,                                 !- Year Escalation 28
  1.2938,                                 !- Year Escalation 29
  1.3115;                                 !- Year Escalation 30

LifeCycleCost:UsePriceEscalation,
  U.S. Avg  Commercial-Coal,              !- Name
  Coal,                                   !- Resource
  2011,                                   !- Escalation Start Year
  January,                                !- Escalation Start Month
  0.9970,                                 !- Year Escalation 1
  1.0089,                                 !- Year Escalation 2
  1.0089,                                 !- Year Escalation 3
  0.9941,                                 !- Year Escalation 4
  0.9941,                                 !- Year Escalation 5
  1.0000,                                 !- Year Escalation 6
  1.0030,                                 !- Year Escalation 7
  1.0059,                                 !- Year Escalation 8
  1.0089,                                 !- Year Escalation 9
  1.0119,                                 !- Year Escalation 10
  1.0148,                                 !- Year Escalation 11
  1.0178,                                 !- Year Escalation 12
  1.0208,                                 !- Year Escalation 13
  1.0267,                                 !- Year Escalation 14
  1.0297,                                 !- Year Escalation 15
  1.0356,                                 !- Year Escalation 16
  1.0415,                                 !- Year Escalation 17
  1.0534,                                 !- Year Escalation 18
  1.0564,                                 !- Year Escalation 19
  1.0593,                                 !- Year Escalation 20
  1.0653,                                 !- Year Escalation 21
  1.0712,                                 !- Year Escalation 22
  1.0742,                                 !- Year Escalation 23
  1.0801,                                 !- Year Escalation 24
  1.0831,                                 !- Year Escalation 25
  1.0831,                                 !- Year Escalation 26
  1.0861,                                 !- Year Escalation 27
  1.0890,                                 !- Year Escalation 28
  1.0920,                                 !- Year Escalation 29
  1.0950;                                 !- Year Escalation 30

Building,
  90.1-2013-MediumOffice-ASHRAE 169-2006-4A created: 2017-08-08 15:32:19 -0400, !- Name
  0,                                      !- North Axis {deg}
  City,                                   !- Terrain
  0.04,                                   !- Loads Convergence Tolerance Value
  0.2,                                    !- Temperature Convergence Tolerance Value {deltaC}
  FullInteriorAndExterior,                !- Solar Distribution
  25,                                     !- Maximum Number of Warmup Days
  6;                                      !- Minimum Number of Warmup Days

Zone,
  Core,                                   !- Name
  ,                                       !- Direction of Relative North {deg}
  4.5732,                                 !- X Origin {m}
  28.7006,                                !- Y Origin {m}
  7.9248,                                 !- Z Origin {m}
  ,                                       !- Type
  ,                                       !- Multiplier
  ,                                       !- Ceiling Height {m}
  ,                                       !- Volume {m3}
  ,                                       !- Floor Area {m2}
  ,                                       !- Zone Inside Convection Algorithm
  ;                                       !- Zone Outside Convection Algorithm

BuildingSurface:Detailed,
  BITCoPT Core Roof,                      !- Name
  Roof,                                   !- Surface Type
  Typical IEAD Roof R-31.25,              !- Construction Name
  Core,                                   !- Zone Name
  Outdoors,                               !- Outside Boundary Condition
  ,                                       !- Outside Boundary Condition Object
  SunExposed,                             !- Sun Exposure
  WindExposed,                            !- Wind Exposure
  ,                                       !- View Factor to Ground
  ,                                       !- Number of Vertices
  28.0839186782575, -15.0870186782575, 3.9624, !- X,Y,Z Vertex 1 {m}
  28.0839186782575, -9.46038132174253, 3.9624, !- X,Y,Z Vertex 2 {m}
  12.4603813217425, -9.46038132174253, 3.9624, !- X,Y,Z Vertex 3 {m}
  12.4603813217425, -15.0870186782575, 3.9624; !- X,Y,Z Vertex 4 {m}

FenestrationSurface:Detailed,
  BITCoPT Core Window,                    !- Name
  Window,                                 !- Surface Type
  U 0.48 SHGC 0.40 Dbl Ref-D Clr 6mm/13mm, !- Construction Name
  BITCoPT Core Roof,                      !- Building Surface Name
  ,                                       !- Outside Boundary Condition Object
  ,                                       !- View Factor to Ground
  ,                                       !- Shading Control Name
  ,                                       !- Frame and Divider Name
  ,                                       !- Multiplier
  ,                                       !- Number of Vertices
  27.9643, -14.9674, 3.9624,              !- X,Y,Z Vertex 1 {m}
  27.9643, -9.58, 3.9624,                 !- X,Y,Z Vertex 2 {m}
  12.58, -9.58, 3.9624,                   !- X,Y,Z Vertex 3 {m}
  12.58, -14.9674, 3.9624;                !- X,Y,Z Vertex 4 {m}

BuildingSurface:Detailed,
  Core Floor,                             !- Name
  Floor,                                  !- Surface Type
  Interior Floor,                         !- Construction Name
  Core,                                   !- Zone Name
  Adiabatic,                              !- Outside Boundary Condition
  ,                                       !- Outside Boundary Condition Object
  NoSun,                                  !- Sun Exposure
  NoWind,                                 !- Wind Exposure
  ,                                       !- View Factor to Ground
  ,                                       !- Number of Vertices
  40.7643, 0, 0,                          !- X,Y,Z Vertex 1 {m}
  40.7643, -24.1274, 0,                   !- X,Y,Z Vertex 2 {m}
  0, -24.1274, 0,                         !- X,Y,Z Vertex 3 {m}
  0, 0, 0;                                !- X,Y,Z Vertex 4 {m}

BuildingSurface:Detailed,
  Core Interior Wall East,                !- Name
  Wall,                                   !- Surface Type
  Typical Interior Wall,                  !- Construction Name
  Core,                                   !- Zone Name
  Surface,                                !- Outside Boundary Condition
  East Interior Wall Core,                !- Outside Boundary Condition Object
  NoSun,                                  !- Sun Exposure
  NoWind,                                 !- Wind Exposure
  ,                                       !- View Factor to Ground
  ,                                       !- Number of Vertices
  40.7643, -24.1274, 3.9624,              !- X,Y,Z Vertex 1 {m}
  40.7643, -24.1274, 0,                   !- X,Y,Z Vertex 2 {m}
  40.7643, 0, 0,                          !- X,Y,Z Vertex 3 {m}
  40.7643, 0, 3.9624;                     !- X,Y,Z Vertex 4 {m}

BuildingSurface:Detailed,
  Core Interior Wall North,               !- Name
  Wall,                                   !- Surface Type
  Typical Interior Wall,                  !- Construction Name
  Core,                                   !- Zone Name
  Surface,                                !- Outside Boundary Condition
  North Interior Wall Core,               !- Outside Boundary Condition Object
  NoSun,                                  !- Sun Exposure
  NoWind,                                 !- Wind Exposure
  ,                                       !- View Factor to Ground
  ,                                       !- Number of Vertices
  40.7643, 0, 3.9624,                     !- X,Y,Z Vertex 1 {m}
  40.7643, 0, 0,                          !- X,Y,Z Vertex 2 {m}
  0, 0, 0,                                !- X,Y,Z Vertex 3 {m}
  0, 0, 3.9624;                           !- X,Y,Z Vertex 4 {m}

BuildingSurface:Detailed,
  Core Interior Wall South,               !- Name
  Wall,                                   !- Surface Type
  Typical Interior Wall,                  !- Construction Name
  Core,                                   !- Zone Name
  Surface,                                !- Outside Boundary Condition
  South Interior Wall Core,               !- Outside Boundary Condition Object
  NoSun,                                  !- Sun Exposure
  NoWind,                                 !- Wind Exposure
  ,                                       !- View Factor to Ground
  ,                                       !- Number of Vertices
  0, -24.1274, 3.9624,                    !- X,Y,Z Vertex 1 {m}
  0, -24.1274, 0,                         !- X,Y,Z Vertex 2 {m}
  40.7643, -24.1274, 0,                   !- X,Y,Z Vertex 3 {m}
  40.7643, -24.1274, 3.9624;              !- X,Y,Z Vertex 4 {m}

BuildingSurface:Detailed,
  Core Interior Wall West,                !- Name
  Wall,                                   !- Surface Type
  Typical Interior Wall,                  !- Construction Name
  Core,                                   !- Zone Name
  Surface,                                !- Outside Boundary Condition
  West Interior Wall Core,                !- Outside Boundary Condition Object
  NoSun,                                  !- Sun Exposure
  NoWind,                                 !- Wind Exposure
  ,                                       !- View Factor to Ground
  ,                                       !- Number of Vertices
  0, 0, 3.9624,                           !- X,Y,Z Vertex 1 {m}
  0, 0, 0,                                !- X,Y,Z Vertex 2 {m}
  0, -24.1274, 0,                         !- X,Y,Z Vertex 3 {m}
  0, -24.1274, 3.9624;                    !- X,Y,Z Vertex 4 {m}

BuildingSurface:Detailed,
  Core Roof,                              !- Name
  Roof,                                   !- Surface Type
  Typical IEAD Roof R-31.25,              !- Construction Name
  Core,                                   !- Zone Name
  Outdoors,                               !- Outside Boundary Condition
  ,                                       !- Outside Boundary Condition Object
  SunExposed,                             !- Sun Exposure
  WindExposed,                            !- Wind Exposure
  ,                                       !- View Factor to Ground
  ,                                       !- Number of Vertices
  40.7643, -24.1274, 3.9624,              !- X,Y,Z Vertex 1 {m}
  40.7643, 0, 3.9624,                     !- X,Y,Z Vertex 2 {m}
  0, 0, 3.9624,                           !- X,Y,Z Vertex 3 {m}
  0, -24.1274, 3.9624;                    !- X,Y,Z Vertex 4 {m}

Lights,
  Core Lights,                            !- Name
  Core,                                   !- Zone or ZoneList Name
  Office Bldg Light,                      !- Schedule Name
  Watts/Area,                             !- Design Level Calculation Method
  ,                                       !- Lighting Level {W}
  9.68751937503875,                       !- Watts per Zone Floor Area {W/m2}
  ,                                       !- Watts per Person {W/person}
  ,                                       !- Return Air Fraction
  ,                                       !- Fraction Radiant
  ,                                       !- Fraction Visible
  ;                                       !- Fraction Replaceable

ScheduleTypeLimits,
  Fraction,                               !- Name
  0,                                      !- Lower Limit Value {BasedOnField A3}
  1,                                      !- Upper Limit Value {BasedOnField A3}
  CONTINUOUS;                             !- Numeric Type

Schedule:Day:Interval,
  Office Bldg Light Rule 1 Day Schedule,  !- Name
  Fraction,                               !- Schedule Type Limits Name
  No,                                     !- Interpolate to Timestep
  24:00,                                  !- Time 1 {hh:mm}
  0.05;                                   !- Value Until Time 1

Schedule:Day:Interval,
  Office Bldg Light Default Schedule,     !- Name
  Fraction,                               !- Schedule Type Limits Name
  No,                                     !- Interpolate to Timestep
  05:00,                                  !- Time 1 {hh:mm}
  0.05,                                   !- Value Until Time 1
  07:00,                                  !- Time 2 {hh:mm}
  0.1,                                    !- Value Until Time 2
  08:00,                                  !- Time 3 {hh:mm}
  0.3,                                    !- Value Until Time 3
  17:00,                                  !- Time 4 {hh:mm}
  0.9,                                    !- Value Until Time 4
  18:00,                                  !- Time 5 {hh:mm}
  0.7,                                    !- Value Until Time 5
  20:00,                                  !- Time 6 {hh:mm}
  0.5,                                    !- Value Until Time 6
  22:00,                                  !- Time 7 {hh:mm}
  0.3,                                    !- Value Until Time 7
  23:00,                                  !- Time 8 {hh:mm}
  0.1,                                    !- Value Until Time 8
  24:00,                                  !- Time 9 {hh:mm}
  0.05;                                   !- Value Until Time 9

Schedule:Day:Interval,
  Office Bldg Light Rule 2 Day Schedule,  !- Name
  Fraction,                               !- Schedule Type Limits Name
  No,                                     !- Interpolate to Timestep
  06:00,                                  !- Time 1 {hh:mm}
  0.05,                                   !- Value Until Time 1
  08:00,                                  !- Time 2 {hh:mm}
  0.1,                                    !- Value Until Time 2
  14:00,                                  !- Time 3 {hh:mm}
  0.5,                                    !- Value Until Time 3
  17:00,                                  !- Time 4 {hh:mm}
  0.15,                                   !- Value Until Time 4
  24:00,                                  !- Time 5 {hh:mm}
  0.05;                                   !- Value Until Time 5

Schedule:Week:Daily,
  Schedule:Week:Daily {3f2ba79c-48de-403f-9add-df39b121a905}, !- Name
  Office Bldg Light Rule 1 Day Schedule,  !- Sunday Schedule:Day Name
  Office Bldg Light Default Schedule,     !- Monday Schedule:Day Name
  Office Bldg Light Default Schedule,     !- Tuesday Schedule:Day Name
  Office Bldg Light Default Schedule,     !- Wednesday Schedule:Day Name
  Office Bldg Light Default Schedule,     !- Thursday Schedule:Day Name
  Office Bldg Light Default Schedule,     !- Friday Schedule:Day Name
  Office Bldg Light Rule 2 Day Schedule,  !- Saturday Schedule:Day Name
  Office Bldg Light Default Schedule,     !- Holiday Schedule:Day Name
  Office Bldg Light Summer Design Day,    !- SummerDesignDay Schedule:Day Name
  Office Bldg Light Winter Design Day,    !- WinterDesignDay Schedule:Day Name
  Office Bldg Light Default Schedule,     !- CustomDay1 Schedule:Day Name
  Office Bldg Light Default Schedule;     !- CustomDay2 Schedule:Day Name

Schedule:Year,
  Office Bldg Light,                      !- Name
  Fraction,                               !- Schedule Type Limits Name
  Schedule:Week:Daily {3f2ba79c-48de-403f-9add-df39b121a905}, !- Schedule:Week Name 1
  1,                                      !- Start Month 1
  1,                                      !- Start Day 1
  12,                                     !- End Month 1
  31;                                     !- End Day 1

Schedule:Day:Interval,
  Office Bldg Light Summer Design Day,    !- Name
  Fraction,                               !- Schedule Type Limits Name
  No,                                     !- Interpolate to Timestep
  24:00,                                  !- Time 1 {hh:mm}
  1;                                      !- Value Until Time 1

Schedule:Day:Interval,
  Office Bldg Light Winter Design Day,    !- Name
  Fraction,                               !- Schedule Type Limits Name
  No,                                     !- Interpolate to Timestep
  24:00,                                  !- Time 1 {hh:mm}
  0;                                      !- Value Until Time 1

Daylighting:Controls,
  {91660c89-7ae8-47a6-8f90-06a2f74d0e22}, !- Name
  Core,                                   !- Zone Name
  ,                                       !- Daylighting Method
  ,                                       !- Availability Schedule Name
  ContinuousOff,                          !- Lighting Control Type
  0.3,                                    !- Minimum Input Power Fraction for Continuous or ContinuousOff Dimming Control
  0.2,                                    !- Minimum Light Output Fraction for Continuous or ContinuousOff Dimming Control
  ,                                       !- Number of Stepped Control Steps
  ,                                       !- Probability Lighting will be Reset When Needed in Manual Stepped Control
  Core daylighting control east,          !- Glare Calculation Daylighting Reference Point Name
  -0,                                     !- Glare Calculation Azimuth Angle of View Direction Clockwise from Zone y-Axis {deg}
  ,                                       !- Maximum Allowable Discomfort Glare Index
  ,                                       !- DElight Gridding Resolution {m2}
  Core daylighting control east,          !- Daylighting Reference Point Name 1
  1,                                      !- Fraction of Zone Controlled by Reference Point 1
  484.376;                                !- Illuminance Setpoint at Reference Point 1 {lux}

Daylighting:ReferencePoint,
  Core daylighting control east,          !- Name
  Core,                                   !- Zone Name
  34.26250704,                            !- X-Coordinate of Reference Point {m}
  -12.0637000000001,                      !- Y-Coordinate of Reference Point {m}
  0.762;                                  !- Z-Coordinate of Reference Point {m}

ZoneControl:Thermostat,
  Core Thermostat,                        !- Name
  Core,                                   !- Zone or ZoneList Name
  Core Thermostat Schedule,               !- Control Type Schedule Name
  ThermostatSetpoint:DualSetpoint,        !- Control Object Type 1
  Office WholeBuilding - Md Office Thermostat 9; !- Control Name 1

Schedule:Compact,
  Core Thermostat Schedule,               !- Name
  Core Thermostat Schedule Type Limits,   !- Schedule Type Limits Name
  Through: 12/31,                         !- Field 1
  For: AllDays,                           !- Field 2
  Until: 24:00,                           !- Field 3
  4;                                      !- Field 4

ScheduleTypeLimits,
  Core Thermostat Schedule Type Limits,   !- Name
  0,                                      !- Lower Limit Value {BasedOnField A3}
  4,                                      !- Upper Limit Value {BasedOnField A3}
  DISCRETE;                               !- Numeric Type

ThermostatSetpoint:DualSetpoint,
  Office WholeBuilding - Md Office Thermostat 9, !- Name
  OfficeMedium HTGSETP_SCH_NO_OPTIMUM,    !- Heating Setpoint Temperature Schedule Name
  OfficeMedium CLGSETP_SCH_NO_OPTIMUM;    !- Cooling Setpoint Temperature Schedule Name

ScheduleTypeLimits,
  Temperature,                            !- Name
  ,                                       !- Lower Limit Value {BasedOnField A3}
  ,                                       !- Upper Limit Value {BasedOnField A3}
  Continuous,                             !- Numeric Type
  temperature;                            !- Unit Type

Schedule:Day:Interval,
  OfficeMedium HTGSETP_SCH_NO_OPTIMUM Default, !- Name
  Temperature,                            !- Schedule Type Limits Name
  No,                                     !- Interpolate to Timestep
  24:00,                                  !- Time 1 {hh:mm}
  15.6;                                   !- Value Until Time 1

Schedule:Day:Interval,
  OfficeMedium HTGSETP_SCH_NO_OPTIMUM Wkdy Day, !- Name