!- Windows Line endings 

Version,
    8.7;                      !- Version Identifier

SimulationControl,
    Yes,                      !- Do Zone Sizing Calculation
    Yes,                      !- Do System Sizing Calculation
    Yes,                      !- Do Plant Sizing Calculation
    No,                       !- Run Simulation for Sizing Periods
    Yes;                      !- Run Simulation for Weather File Run Periods

Building,
    90.1-2013-MediumOffice-ASHRAE 169-2006-4A created: 2017-08-08 15:32:19 -0400,    !- Name
    0.0,                      !- North Axis
    City,                     !- Terrain
    0.04,                     !- Loads Convergence Tolerance Value
    0.2,                      !- Temperature Convergence Tolerance Value
    FullInteriorAndExterior,    !- Solar Distribution
    25,                       !- Maximum Number of Warmup Days
    6;                        !- Minimum Number of Warmup Days

ShadowCalculation,
    AverageOverDaysInFrequency,    !- Calculation Method
    7,                        !- Calculation Frequency
    15000;                    !- Maximum Figures in Shadow Overlap Calculations

SurfaceConvectionAlgorithm:Inside,
    TARP;                     !- Algorithm

SurfaceConvectionAlgorithm:Outside,
    TARP;                     !- Algorithm

HeatBalanceAlgorithm,
    ConductionTransferFunction,    !- Algorithm
    200.0;                    !- Surface Temperature Upper Limit

ZoneAirHeatBalanceAlgorithm,
    ThirdOrderBackwardDifference;    !- Algorithm

ZoneAirContaminantBalance,
    No;                       !- Carbon Dioxide Concentration

ZoneCapacitanceMultiplier:ResearchSpecial,
    {0d498575-938a-48bc-90e0-1e745b4b605f},    !- Name
    ,                         !- Zone or ZoneList Name
    ,                         !- Temperature Capacity Multiplier
    ,                         !- Humidity Capacity Multiplier
    ,                         !- Carbon Dioxide Capacity Multiplier
    ;                         !- Generic Contaminant Capacity Multiplier

Timestep,
    6;                        !- Number of Timesteps per Hour

ConvergenceLimits,
    2,                        !- Minimum System Timestep
    25;                       !- Maximum HVAC Iterations

Site:Location,
    New York Laguardia Arpt,    !- Name
    40.78,                    !- Latitude
    -73.88,                   !- Longitude
    -5.0,                     !- Time Zone
    3.0;                      !- Elevation

SizingPeriod:DesignDay,
    Baltimore Blt Washngtn IntL Ann Clg .4% Condns DB=>MWB,    !- Name
    7,                        !- Month
    21,                       !- Day of Month
    SummerDesignDay,          !- Day Type
    34.4,                     !- Maximum DryBulb Temperature
    10.4,                     !- Daily DryBulb Temperature Range
    DefaultMultipliers,       !- DryBulb Temperature Range Modifier Type
    ,                         !- DryBulb Temperature Range Modifier Day Schedule Name
    Wetbulb,                  !- Humidity Condition Type
    23.9,                     !- Wetbulb or DewPoint at Maximum DryBulb
    ,                         !- Humidity Condition Day Schedule Name
    ,                         !- Humidity Ratio at Maximum DryBulb
    ,                         !- Enthalpy at Maximum DryBulb
    ,                         !- Daily WetBulb Temperature Range
    100786.0,                 !- Barometric Pressure
    4.6,                      !- Wind Speed
    280.0,                    !- Wind Direction
    No,                       !- Rain Indicator
    No,                       !- Snow Indicator
    No,                       !- Daylight Saving Time Indicator
    ASHRAETau,                !- Solar Model Indicator
    ,                         !- Beam Solar Day Schedule Name
    ,                         !- Diffuse Solar Day Schedule Name
    0.552,                    !- ASHRAE Clear Sky Optical Depth for Beam Irradiance taub
    1.769;                    !- ASHRAE Clear Sky Optical Depth for Diffuse Irradiance taud

SizingPeriod:DesignDay,
    Baltimore Blt Washngtn IntL Ann Htg 99.6% Condns DB,    !- Name
    1,                        !- Month
    21,                       !- Day of Month
    WinterDesignDay,          !- Day Type
    -10.6,                    !- Maximum DryBulb Temperature
    0.0,                      !- Daily DryBulb Temperature Range
    DefaultMultipliers,       !- DryBulb Temperature Range Modifier Type
    ,                         !- DryBulb Temperature Range Modifier Day Schedule Name
    Wetbulb,                  !- Humidity Condition Type
    -10.6,                    !- Wetbulb or DewPoint at Maximum DryBulb
    ,                         !- Humidity Condition Day Schedule Name
    ,                         !- Humidity Ratio at Maximum DryBulb
    ,                         !- Enthalpy at Maximum DryBulb
    ,                         !- Daily WetBulb Temperature Range
    100786.0,                 !- Barometric Pressure
    3.9,                      !- Wind Speed
    290.0,                    !- Wind Direction
    No,                       !- Rain Indicator
    No,                       !- Snow Indicator
    No,                       !- Daylight Saving Time Indicator
    ASHRAEClearSky,           !- Solar Model Indicator
    ,                         !- Beam Solar Day Schedule Name
    ,                         !- Diffuse Solar Day Schedule Name
    ,                         !- ASHRAE Clear Sky Optical Depth for Beam Irradiance taub
    ,                         !- ASHRAE Clear Sky Optical Depth for Diffuse Irradiance taud
    0.0;                      !- Sky Clearness

SizingPeriod:DesignDay,
    New York Laguardia Arpt Ann Clg .4% Condns DB=>MWB,    !- Name
    7,                        !- Month
    21,                       !- Day of Month
    SummerDesignDay,          !- Day Type
    33.5,                     !- Maximum DryBulb Temperature
    7.7,                      !- Daily DryBulb Temperature Range
    DefaultMultipliers,       !- DryBulb Temperature Range Modifier Type
    ,                         !- DryBulb Temperature Range Modifier Day Schedule Name
    Wetbulb,                  !- Humidity Condition Type
    23.5,                     !- Wetbulb or DewPoint at Maximum DryBulb
    ,                         !- Humidity Condition Day Schedule Name
    ,                         !- Humidity Ratio at Maximum DryBulb
    ,                         !- Enthalpy at Maximum DryBulb
    ,                         !- Daily WetBulb Temperature Range
    101289.0,                 !- Barometric Pressure
    5.6,                      !- Wind Speed
    270.0,                    !- Wind Direction
    No,                       !- Rain Indicator
    No,                       !- Snow Indicator
    No,                       !- Daylight Saving Time Indicator
    ASHRAETau,                !- Solar Model Indicator
    ,                         !- Beam Solar Day Schedule Name
    ,                         !- Diffuse Solar Day Schedule Name
    0.532,                    !- ASHRAE Clear Sky Optical Depth for Beam Irradiance taub
    1.821;                    !- ASHRAE Clear Sky Optical Depth for Diffuse Irradiance taud

SizingPeriod:DesignDay,
    New York Laguardia Arpt Ann Clg .4% Condns DP=>MDB,    !- Name
    7,                        !- Month
    21,                       !- Day of Month
    SummerDesignDay,          !- Day Type
    27.2,                     !- Maximum DryBulb Temperature
    7.7,                      !- Daily DryBulb Temperature Range
    DefaultMultipliers,       !- DryBulb Temperature Range Modifier Type
    ,                         !- DryBulb Temperature Range Modifier Day Schedule Name
    Dewpoint,                 !- Humidity Condition Type
    23.5,                     !- Wetbulb or DewPoint at Maximum DryBulb
    ,                         !- Humidity Condition Day Schedule Name
    ,                         !- Humidity Ratio at Maximum DryBulb
    ,                         !- Enthalpy at Maximum DryBulb
    ,                         !- Daily WetBulb Temperature Range
    101289.0,                 !- Barometric Pressure
    5.6,                      !- Wind Speed
    270.0,                    !- Wind Direction
    No,                       !- Rain Indicator
    No,                       !- Snow Indicator
    No,                       !- Daylight Saving Time Indicator
    ASHRAETau,                !- Solar Model Indicator
    ,                         !- Beam Solar Day Schedule Name
    ,                         !- Diffuse Solar Day Schedule Name
    0.532,                    !- ASHRAE Clear Sky Optical Depth for Beam Irradiance taub
    1.821;                    !- ASHRAE Clear Sky Optical Depth for Diffuse Irradiance taud

SizingPeriod:DesignDay,
    New York Laguardia Arpt Ann Clg .4% Condns Enth=>MDB,    !- Name
    7,                        !- Month
    21,                       !- Day of Month
    SummerDesignDay,          !- Day Type
    30.8,                     !- Maximum DryBulb Temperature
    7.7,                      !- Daily DryBulb Temperature Range
    DefaultMultipliers,       !- DryBulb Temperature Range Modifier Type
    ,                         !- DryBulb Temperature Range Modifier Day Schedule Name
    Enthalpy,                 !- Humidity Condition Type
    ,                         !- Wetbulb or DewPoint at Maximum DryBulb
    ,                         !- Humidity Condition Day Schedule Name
    ,                         !- Humidity Ratio at Maximum DryBulb
    76200.0,                  !- Enthalpy at Maximum DryBulb
    ,                         !- Daily WetBulb Temperature Range
    101289.0,                 !- Barometric Pressure
    5.6,                      !- Wind Speed
    270.0,                    !- Wind Direction
    No,                       !- Rain Indicator
    No,                       !- Snow Indicator
    No,                       !- Daylight Saving Time Indicator
    ASHRAETau,                !- Solar Model Indicator
    ,                         !- Beam Solar Day Schedule Name
    ,                         !- Diffuse Solar Day Schedule Name
    0.532,                    !- ASHRAE Clear Sky Optical Depth for Beam Irradiance taub
    1.821;                    !- ASHRAE Clear Sky Optical Depth for Diffuse Irradiance taud

SizingPeriod:DesignDay,
    New York Laguardia Arpt Ann Clg .4% Condns WB=>MDB,    !- Name
    7,                        !- Month
    21,                       !- Day of Month
    SummerDesignDay,          !- Day Type
    30.7,                     !- Maximum DryBulb Temperature
    7.7,                      !- Daily DryBulb Temperature Range
    DefaultMultipliers,       !- DryBulb Temperature Range Modifier Type
    ,                         !- DryBulb Temperature Range Modifier Day Schedule Name
    Wetbulb,                  !- Humidity Condition Type
    25.1,                     !- Wetbulb or DewPoint at Maximum DryBulb
    ,                         !- Humidity Condition Day Schedule Name
    ,                         !- Humidity Ratio at Maximum DryBulb
    ,                         !- Enthalpy at Maximum DryBulb
    ,                         !- Daily WetBulb Temperature Range
    101289.0,                 !- Barometric Pressure
    5.6,                      !- Wind Speed
    270.0,                    !- Wind Direction
    No,                       !- Rain Indicator
    No,                       !- Snow Indicator
    No,                       !- Daylight Saving Time Indicator
    ASHRAETau,                !- Solar Model Indicator
    ,                         !- Beam Solar Day Schedule Name
    ,                         !- Diffuse Solar Day Schedule Name
    0.532,                    !- ASHRAE Clear Sky Optical Depth for Beam Irradiance taub
    1.821;                    !- ASHRAE Clear Sky Optical Depth for Diffuse Irradiance taud

SizingPeriod:DesignDay,
    New York Laguardia Arpt Ann Htg 99.6% Condns DB,    !- Name
    1,                        !- Month
    21,                       !- Day of Month
    WinterDesignDay,          !- Day Type
    -10.8,                    !- Maximum DryBulb Temperature
    0.0,                      !- Daily DryBulb Temperature Range
    DefaultMultipliers,       !- DryBulb Temperature Range Modifier Type
    ,                         !- DryBulb Temperature Range Modifier Day Schedule Name
    Wetbulb,                  !- Humidity Condition Type
    -10.8,                    !- Wetbulb or DewPoint at Maximum DryBulb
    ,                         !- Humidity Condition Day Schedule Name
    ,                         !- Humidity Ratio at Maximum DryBulb
    ,                         !- Enthalpy at Maximum DryBulb
    ,                         !- Daily WetBulb Temperature Range
    101289.0,                 !- Barometric Pressure
    7.5,                      !- Wind Speed
    320.0,                    !- Wind Direction
    No,                       !- Rain Indicator
    No,                       !- Snow Indicator
    No,                       !- Daylight Saving Time Indicator
    ASHRAEClearSky,           !- Solar Model Indicator
    ,                         !- Beam Solar Day Schedule Name
    ,                         !- Diffuse Solar Day Schedule Name
    ,                         !- ASHRAE Clear Sky Optical Depth for Beam Irradiance taub
    ,                         !- ASHRAE Clear Sky Optical Depth for Diffuse Irradiance taud
    0.0;                      !- Sky Clearness

SizingPeriod:DesignDay,
    New York Laguardia Arpt Ann Htg Wind 99.6% Condns WS=>MCDB,    !- Name
    1,                        !- Month
    21,                       !- Day of Month
    WinterDesignDay,          !- Day Type
    0.0,                      !- Maximum DryBulb Temperature
    0.0,                      !- Daily DryBulb Temperature Range
    DefaultMultipliers,       !- DryBulb Temperature Range Modifier Type
    ,                         !- DryBulb Temperature Range Modifier Day Schedule Name
    Wetbulb,                  !- Humidity Condition Type
    0.0,                      !- Wetbulb or DewPoint at Maximum DryBulb
    ,                         !- Humidity Condition Day Schedule Name
    ,                         !- Humidity Ratio at Maximum DryBulb
    ,                         !- Enthalpy at Maximum DryBulb
    ,                         !- Daily WetBulb Temperature Range
    101289.0,                 !- Barometric Pressure
    14.4,                     !- Wind Speed
    320.0,                    !- Wind Direction
    No,                       !- Rain Indicator
    No,                       !- Snow Indicator
    No,                       !- Daylight Saving Time Indicator
    ASHRAEClearSky,           !- Solar Model Indicator
    ,                         !- Beam Solar Day Schedule Name
    ,                         !- Diffuse Solar Day Schedule Name
    ,                         !- ASHRAE Clear Sky Optical Depth for Beam Irradiance taub
    ,                         !- ASHRAE Clear Sky Optical Depth for Diffuse Irradiance taud
    0.0;                      !- Sky Clearness

SizingPeriod:DesignDay,
    New York Laguardia Arpt Ann Hum_n 99.6% Condns DP=>MCDB,    !- Name
    1,                        !- Month
    21,                       !- Day of Month
    WinterDesignDay,          !- Day Type
    -9.3,                     !- Maximum DryBulb Temperature
    0.0,                      !- Daily DryBulb Temperature Range
    DefaultMultipliers,       !- DryBulb Temperature Range Modifier Type
    ,                         !- DryBulb Temperature Range Modifier Day Schedule Name
    Dewpoint,                 !- Humidity Condition Type
    -20.1,                    !- Wetbulb or DewPoint at Maximum DryBulb
    ,                         !- Humidity Condition Day Schedule Name
    ,                         !- Humidity Ratio at Maximum DryBulb
    ,                         !- Enthalpy at Maximum DryBulb
    ,                         !- Daily WetBulb Temperature Range
    101289.0,                 !- Barometric Pressure
    7.5,                      !- Wind Speed
    320.0,                    !- Wind Direction
    No,                       !- Rain Indicator
    No,                       !- Snow Indicator
    No,                       !- Daylight Saving Time Indicator
    ASHRAEClearSky,           !- Solar Model Indicator
    ,                         !- Beam Solar Day Schedule Name
    ,                         !- Diffuse Solar Day Schedule Name
    ,                         !- ASHRAE Clear Sky Optical Depth for Beam Irradiance taub
    ,                         !- ASHRAE Clear Sky Optical Depth for Diffuse Irradiance taud
    0.0;                      !- Sky Clearness

RunPeriod,
    Run Period 1,             !- Name
    1,                        !- Begin Month
    1,                        !- Begin Day of Month
    12,                       !- End Month
    31,                       !- End Day of Month
    Sunday,                   !- Day of Week for Start Day
    No,                       !- Use Weather File Holidays and Special Days
    No,                       !- Use Weather File Daylight Saving Period
    No,                       !- Apply Weekend Holiday Rule
    Yes,                      !- Use Weather File Rain Indicators
    Yes,                      !- Use Weather File Snow Indicators
    1;                        !- Number of Times Runperiod to be Repeated

Site:GroundTemperature:BuildingSurface,
    20.58,                    !- January Ground Temperature
    20.52,                    !- February Ground Temperature
    20.55,                    !- March Ground Temperature
    20.59,                    !- April Ground Temperature
    20.67,                    !- May Ground Temperature
    22.89,                    !- June Ground Temperature
    23.29,                    !- July Ground Temperature
    23.4,                     !- August Ground Temperature
    23.42,                    !- September Ground Temperature
    21.21,                    !- October Ground Temperature
    20.85,                    !- November Ground Temperature
    20.69;                    !- December Ground Temperature

Site:WaterMainsTemperature,
    Correlation,              !- Calculation Method
    ,                         !- Temperature Schedule Name
    13.15,                    !- Annual Average Outdoor Air Temperature
    25.8;                     !- Maximum Difference In Monthly Average Outdoor Air Temperatures

ScheduleTypeLimits,
    Fraction,                 !- Name
    0,                        !- Lower Limit Value
    1,                        !- Upper Limit Value
    CONTINUOUS;               !- Numeric Type

ScheduleTypeLimits,
    Core Thermostat Schedule Type Limits,    !- Name
    0,                        !- Lower Limit Value
    4,                        !- Upper Limit Value
    DISCRETE;                 !- Numeric Type

ScheduleTypeLimits,
    Temperature,              !- Name
    ,                         !- Lower Limit Value
    ,                         !- Upper Limit Value
    Continuous,               !- Numeric Type
    temperature;              !- Unit Type

ScheduleTypeLimits,
    East Thermostat Schedule Type Limits,    !- Name
    0,                        !- Lower Limit Value
    4,                        !- Upper Limit Value
    DISCRETE;                 !- Numeric Type

ScheduleTypeLimits,
    North Thermostat Schedule Type Limits,    !- Name
    0,                        !- Lower Limit Value
    4,                        !- Upper Limit Value
    DISCRETE;                 !- Numeric Type

ScheduleTypeLimits,
    South Thermostat Schedule Type Limits,    !- Name
    0,                        !- Lower Limit Value
    4,                        !- Upper Limit Value
    DISCRETE;                 !- Numeric Type

ScheduleTypeLimits,
    West Thermostat Schedule Type Limits,    !- Name
    0,                        !- Lower Limit Value
    4,                        !- Upper Limit Value
    DISCRETE;                 !- Numeric Type

ScheduleTypeLimits,
    ActivityLevel,            !- Name
    0,                        !- Lower Limit Value
    ,                         !- Upper Limit Value
    Continuous,               !- Numeric Type
    activitylevel;            !- Unit Type

ScheduleTypeLimits,
    ActivityLevel 13,         !- Name
    0,                        !- Lower Limit Value
    ,                         !- Upper Limit Value
    Continuous,               !- Numeric Type
    activitylevel;            !- Unit Type

ScheduleTypeLimits,
    Capacity,                 !- Name
    0,                        !- Lower Limit Value
    ,                         !- Upper Limit Value
    Continuous,               !- Numeric Type
    capacity;                 !- Unit Type

ScheduleTypeLimits,
    Any Number;               !- Name

ScheduleTypeLimits,
    ControlMode,              !- Name
    0,                        !- Lower Limit Value
    1,                        !- Upper Limit Value
    Discrete,                 !- Numeric Type
    controlmode;              !- Unit Type

ScheduleTypeLimits,
    DeltaTemperature,         !- Name
    ,                         !- Lower Limit Value
    ,                         !- Upper Limit Value
    Continuous,               !- Numeric Type
    deltatemperature;         !- Unit Type

ScheduleTypeLimits,
    Dimensionless,            !- Name
    ,                         !- Lower Limit Value
    ,                         !- Upper Limit Value
    Continuous;               !- Numeric Type

ScheduleTypeLimits,
    Dimensionless 1,          !- Name
    -1,                       !- Lower Limit Value
    1,                        !- Upper Limit Value
    Continuous;               !- Numeric Type

ScheduleTypeLimits,
    Dimensionless 2,          !- Name
    0.1,                      !- Lower Limit Value
    1000,                     !- Upper Limit Value
    Continuous;               !- Numeric Type

ScheduleTypeLimits,
    Dimensionless 3,          !- Name
    0,                        !- Lower Limit Value
    1,                        !- Upper Limit Value
    Continuous,               !- Numeric Type
    dimensionless;            !- Unit Type

ScheduleTypeLimits,
    Fractional,               !- Name
    0,                        !- Lower Limit Value
    1,                        !- Upper Limit Value
    Continuous;               !- Numeric Type

ScheduleTypeLimits,
    LinearPowerDensity,       !- Name
    0,                        !- Lower Limit Value
    ,                         !- Upper Limit Value
    Continuous,               !- Numeric Type
    linearpowerdensity;       !- Unit Type

ScheduleTypeLimits,
    OnOff,                    !- Name
    0,                        !- Lower Limit Value
    1,                        !- Upper Limit Value
    Discrete,                 !- Numeric Type
    availability;             !- Unit Type

ScheduleTypeLimits,
    Percent,                  !- Name
    0,                        !- Lower Limit Value
    100,                      !- Upper Limit Value
    Continuous,               !- Numeric Type
    percent;                  !- Unit Type

ScheduleTypeLimits,
    Schedule Type Limits 1,    !- Name
    0,                        !- Lower Limit Value
    1,                        !- Upper Limit Value
    Discrete,                 !- Numeric Type
    availability;             !- Unit Type

ScheduleTypeLimits,
    Temperature 1,            !- Name
    0,                        !- Lower Limit Value
    100,                      !- Upper Limit Value
    Continuous,               !- Numeric Type
    temperature;              !- Unit Type

ScheduleTypeLimits,
    Temperature Schedule Type Limits,    !- Name
    0,                        !- Lower Limit Value
    100,                      !- Upper Limit Value
    Continuous,               !- Numeric Type
    temperature;              !- Unit Type

ScheduleTypeLimits,
    Temperature Schedule Type Limits 1,    !- Name
    0,                        !- Lower Limit Value
    100,                      !- Upper Limit Value
    Continuous,               !- Numeric Type
    temperature;              !- Unit Type

ScheduleTypeLimits,
    Velocity,                 !- Name
    0,                        !- Lower Limit Value
    ,                         !- Upper Limit Value
    Continuous,               !- Numeric Type
    velocity;                 !- Unit Type

ScheduleTypeLimits,
    VolumetricFlowRate,       !- Name
    0,                        !- Lower Limit Value
    ,                         !- Upper Limit Value
    Continuous,               !- Numeric Type
    volumetricflowrate;       !- Unit Type

Schedule:Day:Interval,
    Office Bldg Light Rule 1 Day Schedule,    !- Name
    Fraction,                 !- Schedule Type Limits Name
    No,                       !- Interpolate to Timestep
    24:00,                    !- Time 1
    0.05;                     !- Value Until Time 1

Schedule:Day:Interval,
    Office Bldg Light Default Schedule,    !- Name
    Fraction,                 !- Schedule Type Limits Name
    No,                       !- Interpolate to Timestep
    05:00,                    !- Time 1
    0.05,                     !- Value Until Time 1
    07:00,                    !- Time 2
    0.1,                      !- Value Until Time 2
    08:00,                    !- Time 3
    0.3,                      !- Value Until Time 3
    17:00,                    !- Time 4
    0.9,                      !- Value Until Time 4
    18:00,                    !- Time 5
    0.7,                      !- Value Until Time 5
    20:00,                    !- Time 6
    0.5,                      !- Value Until Time 6
    22:00,                    !- Time 7
    0.3,                      !- Value Until Time 7
    23:00,                    !- Time 8
    0.1,                      !- Value Until Time 8
    24:00,                    !- Time 9
    0.05;                     !- Value Until Time 9

Schedule:Day:Interval,
    Office Bldg Light Rule 2 Day Schedule,    !- Name
    Fraction,                 !- Schedule Type Limits Name
    No,                       !- Interpolate to Timestep
    06:00,                    !- Time 1
    0.05,                     !- Value Until Time 1
    08:00,                    !- Time 2
    0.1,                      !- Value Until Time 2
    14:00,                    !- Time 3
    0.5,                      !- Value Until Time 3
    17:00,                    !- Time 4
    0.15,                     !- Value Until Time 4
    24:00,                    !- Time 5
    0.05;                     !- Value Until Time 5

Schedule:Day:Interval,
    Office Bldg Light Summer Design Day,    !- Name
    Fraction,                 !- Schedule Type Limits Name
    No,                       !- Interpolate to Timestep
    24:00,                    !- Time 1
    1;                        !- Value Until Time 1

Schedule:Day:Interval,
    Office Bldg Light Winter Design Day,    !- Name
    Fraction,                 !- Schedule Type Limits Name
    No,                       !- Interpolate to Timestep
    24:00,                    !- Time 1
    0;                        !- Value Until Time 1

Schedule:Day:Interval,
    OfficeMedium HTGSETP_SCH_NO_OPTIMUM Default,    !- Name
    Temperature,              !- Schedule Type Limits Name
    No,                       !- Interpolate to Timestep
    24:00,                    !- Time 1
    15.6;                     !- Value Until Time 1

Schedule:Day:Interval,
    OfficeMedium HTGSETP_SCH_NO_OPTIMUM Wkdy Day,    !- Name
    Temperature,              !- Schedule Type Limits Name
    No,                       !- Interpolate to Timestep
    05:00,                    !- Time 1
    15.6,                     !- Value Until Time 1
    22:00,                    !- Time 2
    21,                       !- Value Until Time 2
    24:00,                    !- Time 3
    15.6;                     !- Value Until Time 3

Schedule:Day:Interval,
    OfficeMedium HTGSETP_SCH_NO_OPTIMUM Sat Day,    !- Name
    Temperature,              !- Schedule Type Limits Name
    No,                       !- Interpolate to Timestep
    05:00,                    !- Time 1
    15.6,                     !- Value Until Time 1
    17:00,                    !- Time 2
    21,                       !- Value Until Time 2
    24:00,                    !- Time 3
    15.6;                     !- Value Until Time 3

Schedule:Day:Interval,
    OfficeMedium HTGSETP_SCH_NO_OPTIMUM Summer Design Day,    !- Name
    Temperature,              !- Schedule Type Limits Name
    No,                       !- Interpolate to Timestep
    24:00,                    !- Time 1
    15.6;                     !- Value Until Time 1

Schedule:Day:Interval,
    OfficeMedium HTGSETP_SCH_NO_OPTIMUM Winter Design Day,    !- Name
    Temperature,              !- Schedule Type Limits Name
    No,                       !- Interpolate to Timestep
    05:00,                    !- Time 1
    15.6,                     !- Value Until Time 1
    06:00,                    !- Time 2
    17.6,                     !- Value Until Time 2
    07:00,                    !- Time 3
    19.6,                     !- Value Until Time 3
    22:00,                    !- Time 4
    21,                       !- Value Until Time 4
    24:00,                    !- Time 5
    15.6;                     !- Value Until Time 5

Schedule:Day:Interval,
    OfficeMedium CLGSETP_SCH_NO_OPTIMUM Default,    !- Name
    Temperature,              !- Schedule Type Limits Name
    No,                       !- Interpolate to Timestep
    24:00,                    !- Time 1
    26.7;                     !- Value Until Time 1

Schedule:Day:Interval,
    OfficeMedium CLGSETP_SCH_NO_OPTIMUM Wkdy Day,    !- Name
    Temperature,              !- Schedule Type Limits Name
    No,                       !- Interpolate to Timestep